Circuit: * C:\Users\natha\Documents\Studium\Juventus\Diplomarbeit\Nathophone_elec\simulations\Draft1.asc

.OP point found by inspection.

Date: Sun Oct 19 22:59:38 2025
Total elapsed time: 0.037 seconds.

tnom = 27
temp = 27
method = modified trap
totiter = 2280
traniter = 2280
tranpoints = 1141
accept = 1116
rejected = 25
matrix size = 8
fillins = 3
solver = Normal
Matrix Compiler1: 366 bytes object code size  0.1/0.0/[0.0]
Matrix Compiler2: 600 bytes object code size  0.1/0.1/[0.0]

