Circuit: * C:\Users\natha\Documents\Studium\Juventus\Diplomarbeit\Nathophone_elec\simulations\LT8650S_DC2407A_adapted.asc

Direct Newton iteration for .op point succeeded.
Heightened Def Con from 0.00110981 to 0.00110981

Date: Sat Oct 11 18:54:03 2025
Total elapsed time: 257.051 seconds.

tnom = 27
temp = 27
method = modified trap
totiter = 10425189
traniter = 10425181
tranpoints = 2660064
accept = 1972760
rejected = 687305
matrix size = 132
fillins = 65
solver = Normal
Thread vector: 10.6/5.8[6] 4.9/2.8[6] 2.2/1.5[6] 0.4/1.0[1]  2592/500
Matrix Compiler1: 7.18 KB object code size  1.3/0.7/[0.4]
Matrix Compiler2: 9.80 KB object code size  0.6/1.0/[0.3]

