Circuit: * C:\Users\natha\Documents\Studium\Juventus\Diplomarbeit\Nathophone_elec\simulations\LT8650S_DC2407A_adapted.asc

Direct Newton iteration for .op point succeeded.

Date: Sun Nov 09 12:39:12 2025
Total elapsed time: 1349.648 seconds.

tnom = 27
temp = 27
method = modified trap
totiter = 45899377
traniter = 45899370
tranpoints = 12099596
accept = 8985300
rejected = 3114296
matrix size = 138
fillins = 88
solver = Normal
Thread vector: 12.0/6.2[6] 5.5/2.8[6] 2.4/1.7[5] 0.4/1.0[1]  2592/500
Matrix Compiler1: 9.20 KB object code size  1.7/0.9/[0.5]
Matrix Compiler2: 10.58 KB object code size  0.7/1.1/[0.4]

