Circuit: * C:\Users\natha\Documents\Studium\Juventus\Diplomarbeit\Nathophone_elec\simulations\LT8650S_DC2407A_adapted.asc

Direct Newton iteration for .op point succeeded.

Date: Sun Nov 09 11:26:42 2025
Total elapsed time: 1133.668 seconds.

tnom = 27
temp = 27
method = modified trap
totiter = 45980145
traniter = 45980138
tranpoints = 12105654
accept = 8995458
rejected = 3110196
matrix size = 138
fillins = 88
solver = Normal
Thread vector: 11.1/4.6[6] 5.0/3.1[6] 2.1/1.4[6] 0.4/0.9[1]  2592/500
Matrix Compiler1: 9.20 KB object code size  1.5/0.8/[0.4]
Matrix Compiler2: off  [0.7]/1.0/0.9

