Circuit: * C:\Users\natha\Documents\Studium\Juventus\Diplomarbeit\Nathophone_elec\simulations\LT8650S_DC2407A_adapted.asc

Direct Newton iteration for .op point succeeded.

Date: Thu Oct 16 14:04:01 2025
Total elapsed time: 108.644 seconds.

tnom = 27
temp = 27
method = modified trap
totiter = 4188102
traniter = 4188095
tranpoints = 1155660
accept = 848702
rejected = 306958
matrix size = 139
fillins = 82
solver = Normal
Thread vector: 11.0/4.9[6] 4.9/2.3[6] 2.2/1.1[6] 0.4/0.9[1]  2592/500
Matrix Compiler1: 8.89 KB object code size  1.5/0.8/[0.4]
Matrix Compiler2: 10.54 KB object code size  0.7/1.1/[0.4]

