Circuit: * C:\Users\natha\Documents\Studium\Juventus\Diplomarbeit\Nathophone_elec\simulations\TDM_TransmissionLine.asc

WARNING: Node N023 is floating.
WARNING: Node N028 is floating.
WARNING: Node NC_02 is floating.
WARNING: Node N019 is floating.
WARNING: Node N014 is floating.
WARNING: Node N010 is floating.
WARNING: Node N024 is floating.
WARNING: Node N005 is floating.
WARNING: Node N034 is floating.
WARNING: Node NC_04 is floating.
WARNING: Node N012 is floating.
WARNING: Node N025 is floating.
WARNING: Node N001 is floating.
WARNING: Node N030 is floating.
WARNING: Node NC_06 is floating.
WARNING: Node N004 is floating.
WARNING: Node N033 is floating.
WARNING: Node N002 is floating.
WARNING: Node N026 is floating.
WARNING: Node N036 is floating.
WARNING: Node N007 is floating.
WARNING: Node N042 is floating.
WARNING: Node N055 is floating.
WARNING: Node N057 is floating.
WARNING: Node OUT_4TO6 is floating.
WARNING: Node N048 is floating.
WARNING: Node N041 is floating.
WARNING: Node N051 is floating.
WARNING: Node N058 is floating.
WARNING: Node NC_08 is floating.
WARNING: Node N046 is floating.
WARNING: Node N044 is floating.
WARNING: Node N052 is floating.
WARNING: Node N061 is floating.
WARNING: Node NC_10 is floating.
WARNING: Node N050 is floating.
WARNING: Node NC_12 is floating.
WARNING: Node NC_14 is floating.
WARNING: Node N038 is floating.

WARNING: Less than two connections to node NC_01.  This node is used by T4.
WARNING: Less than two connections to node NC_02.  This node is used by T4.
WARNING: Less than two connections to node NC_03.  This node is used by T11.
WARNING: Less than two connections to node NC_04.  This node is used by T11.
WARNING: Less than two connections to node NC_05.  This node is used by T15.
WARNING: Less than two connections to node NC_06.  This node is used by T15.
WARNING: Less than two connections to node NC_07.  This node is used by T28.
WARNING: Less than two connections to node NC_08.  This node is used by T28.
WARNING: Less than two connections to node NC_09.  This node is used by T32.
WARNING: Less than two connections to node NC_10.  This node is used by T32.
WARNING: Less than two connections to node NC_11.  This node is used by T35.
WARNING: Less than two connections to node NC_12.  This node is used by T35.
WARNING: Less than two connections to node NC_13.  This node is used by T35.
WARNING: Less than two connections to node NC_14.  This node is used by T35.
.OP point found by inspection.

Date: Sun Nov 16 11:09:28 2025
Total elapsed time: 9.925 seconds.

tnom = 27
temp = 27
method = modified trap
totiter = 440106
traniter = 440106
tranpoints = 220054
accept = 220043
rejected = 11
matrix size = 236
fillins = 553
solver = Normal
Thread vector: 1.6/1.3[3] 0.6/0.7[1] 0.1/0.4[1] 0.9/1.4[1]  2592/500
Matrix Compiler1: 44.57 KB object code size  6.2/3.4/[1.7]
Matrix Compiler2: 28.22 KB object code size  1.1/2.3/[0.7]

