Circuit: * C:\Users\natha\Documents\Studium\Juventus\Diplomarbeit\Nathophone_elec\simulations\TDM_TransmissionLine_singleterm.asc

WARNING: Node N023 is floating.
WARNING: Node N028 is floating.
WARNING: Node NC_02 is floating.
WARNING: Node N019 is floating.
WARNING: Node N014 is floating.
WARNING: Node N010 is floating.
WARNING: Node N024 is floating.
WARNING: Node N005 is floating.
WARNING: Node N034 is floating.
WARNING: Node NC_04 is floating.
WARNING: Node N012 is floating.
WARNING: Node N026 is floating.
WARNING: Node N001 is floating.
WARNING: Node N030 is floating.
WARNING: Node NC_06 is floating.
WARNING: Node N004 is floating.
WARNING: Node N033 is floating.
WARNING: Node N002 is floating.
WARNING: Node N025 is floating.
WARNING: Node NC_08 is floating.
WARNING: Node N007 is floating.
WARNING: Node N040 is floating.
WARNING: Node OUT_4TO6 is floating.
WARNING: Node N053 is floating.
WARNING: Node NC_10 is floating.
WARNING: Node N046 is floating.
WARNING: Node N039 is floating.
WARNING: Node N049 is floating.
WARNING: Node N054 is floating.
WARNING: Node NC_12 is floating.
WARNING: Node N044 is floating.
WARNING: Node N042 is floating.
WARNING: Node N050 is floating.
WARNING: Node N057 is floating.
WARNING: Node NC_14 is floating.
WARNING: Node N048 is floating.
WARNING: Node NC_16 is floating.
WARNING: Node N037 is floating.
WARNING: Node NC_18 is floating.

WARNING: Less than two connections to node NC_01.  This node is used by T4.
WARNING: Less than two connections to node NC_02.  This node is used by T4.
WARNING: Less than two connections to node NC_03.  This node is used by T11.
WARNING: Less than two connections to node NC_04.  This node is used by T11.
WARNING: Less than two connections to node NC_05.  This node is used by T15.
WARNING: Less than two connections to node NC_06.  This node is used by T15.
WARNING: Less than two connections to node NC_07.  This node is used by T20.
WARNING: Less than two connections to node NC_08.  This node is used by T20.
WARNING: Less than two connections to node NC_09.  This node is used by T24.
WARNING: Less than two connections to node NC_10.  This node is used by T24.
WARNING: Less than two connections to node NC_11.  This node is used by T28.
WARNING: Less than two connections to node NC_12.  This node is used by T28.
WARNING: Less than two connections to node NC_13.  This node is used by T32.
WARNING: Less than two connections to node NC_14.  This node is used by T32.
WARNING: Less than two connections to node NC_15.  This node is used by T37.
WARNING: Less than two connections to node NC_16.  This node is used by T37.
WARNING: Less than two connections to node NC_17.  This node is used by T38.
WARNING: Less than two connections to node NC_18.  This node is used by T38.
.OP point found by inspection.

Date: Sun Nov 16 11:18:12 2025
Total elapsed time: 9.498 seconds.

tnom = 27
temp = 27
method = modified trap
totiter = 440106
traniter = 440106
tranpoints = 220054
accept = 220043
rejected = 11
matrix size = 236
fillins = 527
solver = Normal
Thread vector: 1.3/1.1[3] 0.7/0.6[3] 0.1/1.0[1] 1.1/1.5[1]  2592/500
Matrix Compiler1: 42.73 KB object code size  6.0/3.8/[1.7]
Matrix Compiler2: 27.79 KB object code size  1.2/2.2/[0.7]

