Circuit: * C:\Users\natha\Documents\Studium\Juventus\Diplomarbeit\Nathophone_elec\simulations\TDM_TransmissionLine.asc

WARNING: Node N022 is floating.
WARNING: Node N034 is floating.
WARNING: Node N043 is floating.
WARNING: Node NC_02 is floating.
WARNING: Node N028 is floating.
WARNING: Node N023 is floating.
WARNING: Node N035 is floating.
WARNING: Node N011 is floating.
WARNING: Node N051 is floating.
WARNING: Node NC_04 is floating.
WARNING: Node N021 is floating.
WARNING: Node N038 is floating.
WARNING: Node N001 is floating.
WARNING: Node N045 is floating.
WARNING: Node NC_06 is floating.
WARNING: Node N008 is floating.
WARNING: Node N050 is floating.
WARNING: Node N003 is floating.
WARNING: Node N036 is floating.
WARNING: Node N057 is floating.
WARNING: Node N013 is floating.
WARNING: Node N004 is floating.
WARNING: Node N037 is floating.
WARNING: Node N047 is floating.
WARNING: Node N060 is floating.
WARNING: Node N015 is floating.
WARNING: Node N002 is floating.
WARNING: Node N032 is floating.
WARNING: Node N048 is floating.
WARNING: Node NC_08 is floating.
WARNING: Node N010 is floating.
WARNING: Node N006 is floating.
WARNING: Node N033 is floating.
WARNING: Node N055 is floating.
WARNING: Node NC_10 is floating.
WARNING: Node N017 is floating.
WARNING: Node NC_12 is floating.
WARNING: Node N059 is floating.
WARNING: Node NC_14 is floating.

WARNING: Less than two connections to node NC_01.  This node is used by T4.
WARNING: Less than two connections to node NC_02.  This node is used by T4.
WARNING: Less than two connections to node NC_03.  This node is used by T11.
WARNING: Less than two connections to node NC_04.  This node is used by T11.
WARNING: Less than two connections to node NC_05.  This node is used by T15.
WARNING: Less than two connections to node NC_06.  This node is used by T15.
WARNING: Less than two connections to node N061.  This node is used by T20.
WARNING: Less than two connections to node N057.  This node is used by T20.
WARNING: Less than two connections to node N063.  This node is used by T24.
WARNING: Less than two connections to node N060.  This node is used by T24.
WARNING: Less than two connections to node NC_07.  This node is used by T28.
WARNING: Less than two connections to node NC_08.  This node is used by T28.
WARNING: Less than two connections to node NC_09.  This node is used by T32.
WARNING: Less than two connections to node NC_10.  This node is used by T32.
WARNING: Less than two connections to node NC_11.  This node is used by T37.
WARNING: Less than two connections to node NC_12.  This node is used by T37.
WARNING: Less than two connections to node NC_13.  This node is used by T38.
WARNING: Less than two connections to node NC_14.  This node is used by T38.
.OP point found by inspection.

Date: Thu Oct 23 16:49:39 2025
Total elapsed time: 8.653 seconds.

tnom = 27
temp = 27
method = modified trap
totiter = 440106
traniter = 440106
tranpoints = 220054
accept = 220043
rejected = 11
matrix size = 235
fillins = 531
solver = Normal
Thread vector: 1.9/1.2[3] 0.7/0.5[3] 0.1/0.3[1] 1.0/1.3[1]  2592/500
Matrix Compiler1: 43.23 KB object code size  6.6/5.4/[1.7]
Matrix Compiler2: 27.79 KB object code size  1.1/2.1/[0.7]

