Circuit: * C:\Users\natha\Documents\Studium\Juventus\Diplomarbeit\Nathophone_elec\simulations\TDM_TransmissionLine.asc

WARNING: Node N035 is floating.
WARNING: Node N044 is floating.
WARNING: Node NC_02 is floating.
WARNING: Node N029 is floating.
WARNING: Node N024 is floating.
WARNING: Node N020 is floating.
WARNING: Node N036 is floating.
WARNING: Node N011 is floating.
WARNING: Node N052 is floating.
WARNING: Node NC_04 is floating.
WARNING: Node N022 is floating.
WARNING: Node N037 is floating.
WARNING: Node N001 is floating.
WARNING: Node N046 is floating.
WARNING: Node NC_06 is floating.
WARNING: Node N008 is floating.
WARNING: Node N051 is floating.
WARNING: Node N003 is floating.
WARNING: Node N040 is floating.
WARNING: Node N058 is floating.
WARNING: Node N013 is floating.
WARNING: Node N004 is floating.
WARNING: Node N042 is floating.
WARNING: Node N048 is floating.
WARNING: Node N061 is floating.
WARNING: Node N015 is floating.
WARNING: Node N002 is floating.
WARNING: Node N033 is floating.
WARNING: Node N049 is floating.
WARNING: Node NC_08 is floating.
WARNING: Node N010 is floating.
WARNING: Node N006 is floating.
WARNING: Node N034 is floating.
WARNING: Node N056 is floating.
WARNING: Node NC_10 is floating.
WARNING: Node N017 is floating.
WARNING: Node NC_12 is floating.
WARNING: Node NC_14 is floating.
WARNING: Node N060 is floating.

WARNING: Less than two connections to node NC_01.  This node is used by T4.
WARNING: Less than two connections to node NC_02.  This node is used by T4.
WARNING: Less than two connections to node NC_03.  This node is used by T11.
WARNING: Less than two connections to node NC_04.  This node is used by T11.
WARNING: Less than two connections to node NC_05.  This node is used by T15.
WARNING: Less than two connections to node NC_06.  This node is used by T15.
WARNING: Less than two connections to node NC_07.  This node is used by T28.
WARNING: Less than two connections to node NC_08.  This node is used by T28.
WARNING: Less than two connections to node NC_09.  This node is used by T32.
WARNING: Less than two connections to node NC_10.  This node is used by T32.
WARNING: Less than two connections to node NC_11.  This node is used by T35.
WARNING: Less than two connections to node NC_12.  This node is used by T35.
WARNING: Less than two connections to node NC_13.  This node is used by T35.
WARNING: Less than two connections to node NC_14.  This node is used by T35.
.OP point found by inspection.

Date: Fri Oct 24 19:30:36 2025
Total elapsed time: 8.466 seconds.

tnom = 27
temp = 27
method = modified trap
totiter = 440106
traniter = 440106
tranpoints = 220054
accept = 220043
rejected = 11
matrix size = 236
fillins = 553
solver = Normal
Matrix Compiler1: 44.57 KB object code size  6.1/4.2/[1.8]
Matrix Compiler2: 28.22 KB object code size  1.2/2.3/[0.8]

